    6
Geometry Step: 0
    C      1.98655830      3.30054294     14.53015354      3.11480547
    H      1.53836199      4.23367131     14.16116432      0.39139849
    H      3.04312411      3.24218698     14.23454048      0.64794113
    H      1.43383329      2.43259801     14.14499415      0.89231451
    F      1.91092659      3.29159437     15.93534035      6.95367360
   Ar      1.91092659      3.29159437     19.03534029      7.99986681
