  128
Geometry Step: 304
   Si      0.04649350      0.04649350      2.10278138      3.78440638
   Si     -0.16911208      2.56513791      4.74578860      3.99804431
   Si      2.56513791     -0.16911208      4.74578860      3.99804431
   Si      2.78074350      2.78074350      2.10278138      3.78440638
   Si      3.95394233      3.95394233      6.10720244      4.00131470
   Si      3.93034623      1.19609623      3.38095725      3.98529459
   Si      1.19609623      3.93034623      3.38095725      3.98529459
   Si      1.21969234      1.21969234      6.10720243      4.00131462
   Si     -0.14768275     -0.14768275      7.46945340      4.00010147
   Si     -0.15254818      2.58170164     10.19317063      4.00015257
   Si      2.58170164     -0.15254818     10.19317063      4.00015257
   Si      2.58656725      2.58656725      7.46945343      4.00010150
   Si      3.94885355      3.94885355     11.55472121      3.99934168
   Si      3.94919826      1.21494825      8.83138223      4.00002420
   Si      1.21494825      3.94919826      8.83138223      4.00002420
   Si      1.21460368      1.21460367     11.55472107      3.99934163
   Si     -0.15298812     -0.15298812     12.91539399      4.00679533
   Si     -0.17590426      2.55834367     15.64221913      4.05696926
   Si      2.55834353     -0.17590417     15.64221905      4.05696923
   Si      2.58126192      2.58126192     12.91539418      4.00679672
   Si      4.11882295      4.11882296     16.85951299      2.80974055
   Si      3.92839999      1.19414916     14.27711654      4.00508409
   Si      1.19414916      3.92840000     14.27711655      4.00508412
   Si      1.38450388      1.38450382     16.85947837      2.80978602
   Si      0.04649350      5.51499350      2.10278138      3.78440638
   Si     -0.16911208      8.03363790      4.74578858      3.99804433
   Si      2.56513790      5.29938792      4.74578858      3.99804433
   Si      2.78074350      8.24924350      2.10278138      3.78440638
   Si      3.95394234      9.42244234      6.10720246      4.00131465
   Si      3.93034624      6.66459624      3.38095726      3.98529459
   Si      1.19609624      9.39884624      3.38095726      3.98529459
   Si      1.21969233      6.68819233      6.10720242      4.00131466
   Si     -0.14768275      5.32081725      7.46945342      4.00010148
   Si     -0.15254820      8.05020162     10.19317052      4.00015236
   Si      2.58170162      5.31595180     10.19317052      4.00015237
   Si      2.58656725      8.05506725      7.46945341      4.00010149
   Si      3.94885360      9.41735360     11.55472132      3.99934279
   Si      3.94919826      6.68344824      8.83138223      4.00002413
   Si      1.21494824      9.41769826      8.83138223      4.00002412
   Si      1.21460359      6.68310359     11.55472097      3.99934048
   Si     -0.15298797      5.31551203     12.91539411      4.00679399
   Si     -0.17590408      8.02684357     15.64221610      4.05702390
   Si      2.55834367      5.29259584     15.64221616      4.05702389
   Si      2.58126175      8.04976174     12.91539409      4.00679781
   Si      4.11880009      9.58730017     16.85949211      2.80975754
   Si      3.92839940      6.66264869     14.27711629      4.00508754
   Si      1.19414869      9.39689943     14.27711632      4.00508746
   Si      1.38453167      6.85303172     16.85950032      2.80976841
   Si      5.51499350      0.04649350      2.10278138      3.78440638
   Si      5.29938792      2.56513790      4.74578858      3.99804433
   Si      8.03363790     -0.16911208      4.74578858      3.99804433
   Si      8.24924350      2.78074350      2.10278138      3.78440638
   Si      9.42244234      3.95394234      6.10720246      4.00131465
   Si      9.39884624      1.19609624      3.38095726      3.98529459
   Si      6.66459624      3.93034624      3.38095726      3.98529459
   Si      6.68819233      1.21969233      6.10720242      4.00131466
   Si      5.32081725     -0.14768275      7.46945342      4.00010148
   Si      5.31595180      2.58170162     10.19317052      4.00015237
   Si      8.05020162     -0.15254820     10.19317052      4.00015237
   Si      8.05506725      2.58656725      7.46945341      4.00010150
   Si      9.41735360      3.94885360     11.55472132      3.99934278
   Si      9.41769826      1.21494824      8.83138223      4.00002413
   Si      6.68344824      3.94919825      8.83138223      4.00002413
   Si      6.68310359      1.21460359     11.55472098      3.99934048
   Si      5.31551203     -0.15298797     12.91539410      4.00679398
   Si      5.29259587      2.55834365     15.64221619      4.05702386
   Si      8.02684354     -0.17590406     15.64221612      4.05702387
   Si      8.04976174      2.58126176     12.91539409      4.00679783
   Si      9.58730109      4.11880102     16.85949118      2.80975742
   Si      9.39689943      1.19414867     14.27711630      4.00508750
   Si      6.66264867      3.92839940     14.27711627      4.00508758
   Si      6.85303162      1.38453157     16.85950012      2.80976830
   Si      5.51499350      5.51499350      2.10278138      3.78440638
   Si      5.29938792      8.03363791      4.74578860      3.99804431
   Si      8.03363791      5.29938792      4.74578860      3.99804431
   Si      8.24924350      8.24924350      2.10278138      3.78440638
   Si      9.42244233      9.42244233      6.10720244      4.00131470
   Si      9.39884623      6.66459623      3.38095725      3.98529459
   Si      6.66459623      9.39884623      3.38095725      3.98529459
   Si      6.68819234      6.68819234      6.10720243      4.00131462
   Si      5.32081725      5.32081725      7.46945340      4.00010147
   Si      5.31595182      8.05020163     10.19317063      4.00015257
   Si      8.05020164      5.31595182     10.19317063      4.00015257
   Si      8.05506725      8.05506725      7.46945343      4.00010150
   Si      9.41735355      9.41735355     11.55472121      3.99934167
   Si      9.41769827      6.68344825      8.83138223      4.00002421
   Si      6.68344825      9.41769827      8.83138223      4.00002421
   Si      6.68310368      6.68310368     11.55472106      3.99934162
   Si      5.31551189      5.31551188     12.91539400      4.00679537
   Si      5.29259604      8.02684340     15.64221917      4.05696936
   Si      8.02684353      5.29259595     15.64221925      4.05696939
   Si      8.04976191      8.04976191     12.91539419      4.00679673
   Si      9.58732271      9.58732270     16.85951371      2.80974082
   Si      9.39689999      6.66264918     14.27711657      4.00508416
   Si      6.66264918      9.39689999     14.27711656      4.00508413
   Si      6.85300552      6.85300557     16.85947698      2.80978582
    F     10.70133787     10.70133787     17.21883358      7.54379010
    F      5.23286742     10.70136742     17.21883962      7.54383547
    F      2.49863612      7.96713611     17.21884874      7.54386988
    F      7.96716980      7.96716980     17.21885591      7.54391981
    F      5.23283754      5.23283754     17.21883343      7.54379005
    F      2.49867136      2.49867136     17.21885643      7.54392253
    F      7.96713615      2.49863616     17.21884874      7.54387022
    F     10.70136656      5.23286656     17.21883933      7.54383403
    F      9.33842634      3.86992634     18.46424934      7.57976321
    F      9.33842658      9.33842658     18.46423664      7.57975649
    F      6.60417703      6.60417703     18.46424933      7.57974615
    F      3.86992649      9.33842649     18.46424829      7.57976166
    F      1.13567759      6.60417759     18.46423723      7.57974107
    F      3.86992638      3.86992638     18.46423730      7.57975753
    F      1.13567722      1.13567723     18.46424768      7.57974371
    H     -0.36402271      5.10447729      0.71229823      1.10345370
    H     -0.36402271     -0.36402271      0.71229823      1.10345370
    H      2.37022729      2.37022729      0.71229823      1.10345370
    H      2.37022729      7.83872729      0.71229823      1.10345370
    H      5.10447729     -0.36402271      0.71229823      1.10345370
    H      5.10447729      5.10447729      0.71229823      1.10345370
    H      7.83872729      2.37022729      0.71229823      1.10345370
    H      7.83872729      7.83872729      0.71229823      1.10345370
    H      9.29718128      9.29718128      1.83193350      1.12561970
    H      9.29718128      3.82868128      1.83193349      1.12561970
    H      6.56293128      1.09443128      1.83193350      1.12561970
    H      6.56293128      6.56293128      1.83193349      1.12561970
    H      3.82868128      3.82868128      1.83193350      1.12561970
    H      3.82868128      9.29718128      1.83193349      1.12561970
    H      1.09443128      1.09443128      1.83193349      1.12561970
    H      1.09443128      6.56293128      1.83193350      1.12561970
    F      6.60417751      1.13567751     18.46423736      7.57974130
