317
Properties=species:S:1:pos:R:3 MD=T iter:=T 2000=T pbc="F F F"
Si      -1.66293000       5.23649000       1.74542000
Si       1.42168000       5.57445000       1.72501000
Si       0.16908000       2.73061000       1.72255000
Si       3.62092525       4.01334864       3.47315358
Si       2.46827932       1.07343024       3.33071205
Si       5.51032619       1.41005238       3.42440114
Si      -1.65750023       5.14059547       4.78951612
Si       0.20552839       2.67561407       4.75453033
Si       1.32825855       5.62002957       4.86461090
Si       3.68016602       3.96642165       6.32452231
Si       2.46746837       1.17268350       6.33848952
Si       5.53407370       1.54600376       6.39107680
Si      -1.70042449       5.21003082       7.82618792
Si       0.24842689       2.71518390       7.80037353
Si       1.30128337       5.56753042       7.75739713
Si       3.92338587       4.16719975       9.18520846
Si       2.65933459       1.18937022       9.26173133
Si       5.62147373       1.51015194       9.28241429
Si      -1.52987447       5.18076496      10.91068280
Si       0.37746595       2.67372455      10.80688479
Si       1.51417133       5.54274829      10.77632997
Si       3.81549639       4.02368355      12.14329032
Si       2.68841521       1.16578443      12.16987952
Si       5.64003549       1.68078490      12.41180096
N        2.64249830       0.13448552       1.83930008
N        2.69753456       4.29999305       1.96958578
N       -0.03088417       4.55570678       1.59717274
N        6.35876186       2.06352160       1.92659158
N        3.90101809       2.17431734       3.34232467
N       -2.46773692       4.57784974       3.22024146
N        1.26622085       6.43997380       3.34064248
N        0.96319956       2.06831738       3.28094036
N        2.76503079       0.12761235       4.90006282
N        2.69815780       4.50327118       4.91574127
N       -0.01906750       4.47600186       4.93729469
N        6.40045997       1.82276721       4.94958918
N        3.92343282       2.18654914       6.47989175
N       -2.50840676       4.72926534       6.31798254
N        1.43979590       6.60372739       6.29772584
N        1.01964071       2.16578098       6.25377883
N        2.53898040       0.17800813       7.75991305
N        2.90578126       4.58964881       7.77828275
N       -0.08070762       4.47024751       7.79682827
N        6.44963781       2.05705108       7.85654073
N        4.01093320       2.32048839       9.23892756
N       -2.39496367       4.72949816       9.37009174
N        1.42976416       6.47304279       9.24385156
N        1.13569770       2.21954588       9.23739921
N        0.12867711       4.47919827      10.85898986
N        2.69278391       0.20190047      10.69521899
N        3.19808881       4.83086148      10.67593021
N        6.54676149       1.84763750      10.83805339
N        3.98841956       2.27626622      12.23941519
N       -2.45601226       4.75067523      12.38525428
N        1.26791480       6.53701685      12.19169036
N        1.20190620       2.21280403      12.27204215
N        3.02501447       4.43934452      13.62765097
N        2.46275543       0.28662356      13.77687581
N        6.51135694       2.32899148      13.82348346
H       -2.44688219       4.97082765       0.45557122
H        1.49571584       6.52345691       0.54836495
H        0.67590849       2.04803902       0.45930570
H        1.89340989       0.51428144       1.20543980
H        3.38171481       4.12886881       1.19787461
H        6.31082109       1.27260132       1.23634617
H       -1.75610926       4.34436500      13.04086716
H        0.36817270       6.19794610      12.61507313
H        1.59350524       3.09038924      12.71743092
H        2.52068368       5.37348094      13.64126346
H       -2.31435295       6.53815663      13.94700472
H       -0.24046565       2.38845090      13.53482559
H        3.82641757       4.70234841      14.22337698
H        2.27072681       1.00675934      14.48611071
H        7.42467922       1.86519562      13.67801457
C       -1.16754933       4.47572704      16.33323443
H       -1.85902912       4.87791545      15.65727543
H       -0.25678750       5.17188121      16.35139997
H       -0.82932978       3.55038502      15.95674030
F       -1.74770723       4.13058026      17.69913616
Si      -5.66964458      11.97120279       2.00339358
Si      -2.61391025      12.33337473       2.07980955
Si      -3.73141747       9.56246992       1.95092248
Si      -0.22332032      10.82225635       3.52517644
Si      -1.41592077       7.96098117       3.31941366
Si       1.61044822       8.17520105       3.39434256
Si      -5.46916342      11.93752916       4.86989109
Si      -3.75538558       9.36348077       4.78281393
Si      -2.60908065      12.34214188       5.07022590
Si      -0.28658024      10.73557658       6.39738653
Si      -1.53211781       7.88580396       6.30664712
Si       1.58501764       8.32630382       6.32296654
Si      -5.60054979      11.98151337       7.73485123
Si      -3.85778537       9.39359418       7.78223151
Si      -2.43010671      12.24036758       7.99545507
Si      -0.20792784      10.73329018       9.42794405
Si      -1.43799864       7.98976075       9.32569293
Si       1.57883219       8.22571067       9.24463680
Si      -5.52087041      11.97011852      10.81955786
Si      -3.77148308       9.49877226      10.83062525
Si      -2.50276674      12.38823784      10.96425597
Si      -0.23649843      10.85962291      12.34500563
Si      -1.44311150       8.01035099      12.39860052
Si       1.45951946       8.28583657      12.13656745
N       -1.47039585       7.04070661       1.77669461
N       -1.07681377      11.45489634       1.96417764
N       -4.04340601      11.27266256       2.12816195
N        2.51914205       8.67873290       1.93409499
N        0.03832920       9.02036762       3.30058227
N       -6.56790241      11.66102478       3.45866900
N       -2.47890521      13.21906904       3.59397604
N       -2.79469705       9.06347043       3.29881798
N       -1.53068041       6.93948757       4.79949345
N       -1.07613549      11.40890854       5.00731657
N       -3.90187615      11.15507104       4.86033665
N        2.43201405       8.74803175       4.92985187
N       -0.07500682       8.97843539       6.11706780
N       -6.47818827      11.58481919       6.25247501
N       -2.54222333      13.30471540       6.57400278
N       -2.86382406       8.94885937       6.35498019
N       -1.25686120       6.96874181       7.84184847
N       -0.93171592      11.36745594       7.93744999
N       -3.96521324      11.14707747       7.69494383
N        2.47860498       8.79945173       7.89457156
N       -0.07207715       9.04309702       9.26879944
N       -6.27386960      11.35666701       9.27990874
N       -2.59846379      13.28503953       9.42457820
N       -3.09213904       8.75756755       9.30126053
N       -3.86884106      11.23853937      11.24799502
N       -1.35810708       7.02429697      10.86464684
N       -1.01574172      11.38269756      10.84738958
N        2.44116894       8.72443057      10.66836785
N       -0.04530808       9.08347259      12.18277348
N       -6.37096921      11.59273482      12.30779164
N       -2.50812296      13.42289755      12.51975953
N       -2.96641533       8.91634273      12.35867050
N       -0.96615760      11.23112997      13.91555517
N       -1.36119555       6.96695737      13.90970660
N        2.24095291       8.78820501      13.70681672
H       -6.42697483      11.66771420       0.72416599
H       -2.63735819      13.21134237       0.78439622
H       -3.13659734       9.29082410       0.55862062
H       -0.63201531       7.29985832       1.21190143
H       -1.23225072      10.66643191       1.29327545
H        1.80996920       9.28101696       1.45704575
H       -5.63438748      11.13791263      12.91176350
H       -3.51186663      13.31171636      12.93130971
H       -3.44435868       9.27447265      13.16671754
H       -1.59020886      10.43516435      14.13772724
H       -6.18615018      13.20164587      13.74831992
H       -4.72108163       8.31071553      14.22188740
H       -1.55291345      12.00915435      13.66738652
H       -1.22091764       7.58071295      14.73690718
H        1.37733051       8.86113043      14.36184008
C       -7.75606220      10.94819047      19.08902205
H       -7.16313669      11.85878620      19.34079396
H       -8.42339396      11.21786809      18.30325461
H       -8.23020553      10.45170263      19.94413931
F       -6.75299788       9.97583814      18.48033141
Si       6.03318072       5.07983684       1.95980790
Si       9.00691262       5.47575741       1.95620255
Si       8.08045920       2.62749747       1.99861585
Si      11.47843883       4.06392594       3.41851519
Si      10.32326124       1.04263694       3.49549503
Si      13.39404185       1.57854139       3.41456487
Si       6.21337641       5.11776514       4.90078909
Si       8.07928173       2.58823923       4.86429632
Si       9.24327148       5.53438524       4.86110993
Si      11.48815329       3.94915850       6.25193500
Si      10.37631938       1.06632300       6.44132538
Si      13.39189094       1.55669119       6.31046077
Si       6.42229489       5.18902188       7.75226897
Si       8.08878089       2.69167706       7.85071699
Si       9.41711969       5.60074518       7.82327502
Si      11.60378932       4.02757474       9.26229005
Si      10.44403309       1.16059846       9.44268031
Si      13.45599893       1.62079239       9.38763660
Si       6.33331274       5.09581875      10.82417929
Si       8.20268486       2.55692942      10.88418913
Si       9.41135489       5.52299831      10.86982375
Si      11.61491897       3.93052253      12.22664799
Si      10.42060801       1.17568056      12.35102375
Si      13.55217229       1.45208789      12.35296241
N       10.30254409       0.22444554       1.86586474
N       10.48104871       4.47121683       2.01620132
N        7.69373957       4.34448970       2.08255657
N       14.20579176       2.06800357       1.91905352
N       11.69725865       2.23610626       3.52555836
N        5.18813664       4.75193559       3.43950443
N        9.02538553       6.60035837       3.41972717
N        8.86353943       2.04779644       3.46587255
N       10.51416247       0.07440695       4.99037033
N       10.85028616       4.83694440       4.87358575
N        7.89300455       4.43006235       4.82300038
N       14.30489246       1.88760489       4.87092986
N       11.73868363       2.18520337       6.37666361
N        5.31826800       4.77408864       6.42913790
N        9.15544201       6.48790359       6.31679469
N        8.90195270       2.14147425       6.38522729
N       10.59819061       0.12459381       7.90860733
N       10.71267731       4.40215362       7.78876960
N        8.03125471       4.47063230       7.75312431
N       14.21145831       2.10362736       7.80919722
N       11.80919119       2.26727187       9.38751978
N        5.62376108       4.56056792       9.24442167
N        9.41562570       6.50760586       9.37275442
N        8.99667500       2.23123651       9.31578097
N        7.99115123       4.34956143      11.00711074
N       10.14940815       0.10834691      10.88132600
N       10.88864839       4.54587983      10.81472787
N       14.36354571       2.04675901      10.82392545
N       11.88101303       2.15430676      12.17630426
N        5.43539194       4.63150045      12.29980204
N        9.69294264       6.63251312      12.24011511
N        8.96880889       2.08467221      12.39220234
N       10.58867475       4.25061874      13.67662115
N       10.56990464       0.34655123      13.98004063
N       14.35627451       2.26468977      13.74061174
H        5.21182279       4.85777296       0.68915341
H        8.74677145       6.30260224       0.71260158
H        8.73803819       2.08687190       0.74797321
H       11.28842390       0.32882918       1.51782336
H       10.42844630       3.66671763       1.35860729
H       13.48336302       2.33650462       1.22141941
H        5.79595661       5.15851779      13.14715696
H       10.74247783       6.43535462      12.36955381
H        9.29877067       2.97269334      12.88684793
H       10.06640095       5.11830244      13.71821810
H        8.04760288       5.98957067      13.61648166
H        6.58276276       3.32199847      13.49660444
H       11.09095716       3.97555597      14.57213865
H        9.88944169       0.75622694      14.63163694
H       14.31907008       1.45827457      14.43443821
C       11.74115028       2.22414859      15.98707855
H       12.41628317       3.20890058      15.92420506
H       12.08264450       1.86772626      17.00882851
H       11.89723906       1.37761586      15.23907621
F       10.46614595       2.50545046      16.00531870
Si       2.17181136      11.98499209       1.98848472
Si       5.34585579      12.25353290       2.07827398
Si       4.03769587       9.57948733       2.15968439
Si       7.53747556      10.80135595       3.49684872
Si       6.40887458       7.86497120       3.48641249
Si       9.39303811       8.33351661       3.40407329
Si       2.36562525      11.81119423       4.94750112
Si       4.14906895       9.28938265       5.03317663
Si       5.30239324      12.31173944       4.91467728
Si       7.59209343      10.67488207       6.38490875
Si       6.46139245       7.87285266       6.45038350
Si       9.38273648       8.22050713       6.34318738
Si       2.22076576      11.94315488       7.93452123
Si       4.14111502       9.48491327       7.99530789
Si       5.33029140      12.39079686       7.91398049
Si       7.64045684      10.81387231       9.37867206
Si       6.45044661       7.95687493       9.36698817
Si       9.54719485       8.29206898       9.37236649
Si       2.23602752      11.90663894      10.81663220
Si       3.96179159       9.51751576      10.85710961
Si       5.36319413      12.25465365      10.80821103
Si       7.66148020      10.76588870      12.36706431
Si       6.68005089       7.68030554      12.39977515
Si       9.46289943       8.47682061      12.34512336
N        6.30540243       6.88327653       1.98801274
N        6.78915879      11.29280786       1.90225533
N        3.86747519      11.33039200       1.98040510
N       10.31948622       8.66904549       1.92031637
N        7.79569539       9.00529129       3.32486133
N        1.41178082      11.51169104       3.49094602
N        5.44930473      13.33791556       3.47213415
N        4.93448629       8.92642728       3.55523245
N        6.50058358       6.85249009       4.98495395
N        6.67210423      11.14603791       4.99480752
N        3.99536751      11.09968649       4.98057370
N       10.30857456       8.64250232       4.89572178
N        7.83356993       8.96381927       6.63013419
N        1.47189881      11.26833300       6.40727259
N        5.40156691      13.30777212       6.43633757
N        5.02808598       8.96992260       6.55393191
N        6.40402017       6.91563725       7.93595871
N        6.71279872      11.19663435       7.90968351
N        3.88717131      11.22298108       8.02432355
N       10.23813900       8.61039490       7.82146810
N        7.90342609       9.00808624       9.39761251
N        1.37293694      11.40835551       9.35648596
N        5.30114191      13.31896345       9.36757958
N        4.96182648       8.98517996       9.46435802
N        3.90985225      11.26233247      10.78029987
N        6.48907280       6.90460812      10.82039331
N        6.96094363      11.55951444      10.83865535
N       10.20793195       9.09926211      10.81292721
N        7.79880897       8.99871949      12.56948772
N        1.44404016      11.62349044      12.41229554
N        5.34247831      13.24930268      12.39959229
N        4.53778589       9.35563195      12.53320952
N        7.02930434      11.35381257      14.00910028
N        7.16503359       6.42528786      13.80060358
N       10.34990714       9.11092208      13.82409111
H        1.27923805      11.57469898       0.83863654
H        5.42641600      13.20016638       0.89098487
H        5.03301044       9.39456909       1.00873632
H        7.04313782       7.21765033       1.32764392
H        6.54476637      10.40320069       1.41413358
H        9.72462825       9.11228784       1.18652406
H        2.09536574      11.01210631      12.91951884
H        4.41541747      13.06021677      12.89490625
H        5.54607261       9.86274900      12.63795889
H        6.73186374      10.54158379      14.57640621
H        2.60960349      12.88730805      13.89693550
H        2.65237831       7.81902909      13.94574535
H        6.19051261      11.97636919      14.01756569
H        7.66042553       6.96360531      14.57273753
H        9.61206697       9.25450110      14.56691244
C        4.93051925       8.01971730      13.01242757
H        4.79781312       8.81765475      15.81926912
H        4.24091396       7.41288514      12.48670426
H        4.89814428       7.87982986      14.14608333
F        5.55950793       8.56941285      16.08659072
Ar     -33.44145727       8.83136838      20.13322856
